% ------------- DIRECT, ADJOINT, AND LINEARIZED PROBLEM DEFINITION ------------%
%
% Physical governing equations (EULER, NAVIER_STOKES,
%                               WAVE_EQUATION, HEAT_EQUATION, FEM_ELASTICITY,
%                               POISSON_EQUATION)
SOLVER= EULER
MATH_PROBLEM= DISCRETE_ADJOINT
RESTART_SOL= NO
MULTIZONE= YES
OUTER_ITER = 10000
TIME_DOMAIN = NO
INNER_ITER = 1
OBJECTIVE_FUNCTION = CUSTOM_OBJFUNC
CUSTOM_OBJFUNC = 0
%
% ----------- COMPRESSIBLE AND INCOMPRESSIBLE FREE-STREAM DEFINITION ----------%
%
% Mach number (non-dimensional, based on the free-stream values)
MACH_NUMBER= 2.0
AOA= 0.0
SIDESLIP_ANGLE= 0.0
FREESTREAM_PRESSURE= 100000.0
FREESTREAM_TEMPERATURE= 300.0
REF_DIMENSIONALIZATION= DIMENSIONAL
%
% ---------------------- REFERENCE VALUE DEFINITION ---------------------------%
%
% Reference origin for moment computation
REF_ORIGIN_MOMENT_X = 0.25
REF_ORIGIN_MOMENT_Y = 0.00
REF_ORIGIN_MOMENT_Z = 0.00
REF_LENGTH= 1.0
REF_AREA= 1.0
%
% -------------------- BOUNDARY CONDITION DEFINITION --------------------------%
%
% Euler wall boundary marker(s) (NONE = no marker)
MARKER_EULER= ( Wall )
MARKER_SUPERSONIC_INLET= ( Inlet, 300.0, 100000.0, 695.4290761825, 0.0, 0.0 )
MARKER_SUPERSONIC_OUTLET= ( Outlet )
MARKER_FAR = (Far)
%
% ------------------------ SURFACES IDENTIFICATION ----------------------------%
%
MARKER_PLOTTING= ( Wall )
MARKER_MONITORING= ( Wall )
MARKER_DESIGNING = ( Wall )
MARKER_ANALYZE = (Wall)
MARKER_ANALYZE_AVERAGE = MASSFLUX
%
% ------------- COMMON PARAMETERS DEFINING THE NUMERICAL METHOD ---------------%
%
% Numerical method for spatial gradients (GREEN_GAUSS, LEAST_SQUARES, 
%                                         WEIGHTED_LEAST_SQUARES)
NUM_METHOD_GRAD= WEIGHTED_LEAST_SQUARES
CFL_NUMBER= 5.0
CFL_ADAPT= YES
CFL_ADAPT_PARAM= ( 0.9, 1.1, 0.1, 1e10 )
RK_ALPHA_COEFF= ( 0.66667, 0.66667, 1.000000 )
LINEAR_SOLVER= BCGSTAB
LINEAR_SOLVER_PREC= ILU
LINEAR_SOLVER_ERROR= 1E-5
LINEAR_SOLVER_ITER= 50
NEWTON_KRYLOV= YES
NEWTON_KRYLOV_IPARAM= (0, 5, 1) % n0, np, ft
NEWTON_KRYLOV_DPARAM= (0.0, 1e-5, -1.0, 1e-3) % r0, tp, rf, e
%
% -------------------------- MULTIGRID PARAMETERS -----------------------------%
%
% Multi-Grid Levels (0 = no multi-grid)
MGLEVEL= 3
MGCYCLE= W_CYCLE
MG_PRE_SMOOTH= ( 1, 2, 3, 3 )
MG_POST_SMOOTH= ( 0, 0, 0, 0 )
MG_CORRECTION_SMOOTH= ( 0, 0, 0, 0 )
MG_DAMP_RESTRICTION= 1.0
MG_DAMP_PROLONGATION= 1.0
%
% -------------------- FLOW NUMERICAL METHOD DEFINITION -----------------------%
%
% Convective numerical method (JST, LAX-FRIEDRICH, CUSP, ROE, AUSM, HLLC,
%                              TURKEL_PREC, MSW)
CONV_NUM_METHOD_FLOW= JST
JST_SENSOR_COEFF= ( 0.5, 0.02 )
TIME_DISCRE_FLOW= EULER_IMPLICIT
%
% --------------------------- CONVERGENCE PARAMETERS --------------------------%
%
CONV_FIELD= RMS_ADJ_DENSITY[0]
CONV_RESIDUAL_MINVAL= -14
CONV_STARTITER= 10
CONV_CAUCHY_ELEMS= 100
CONV_CAUCHY_EPS= 1E-10
%
% ------------------------- INPUT/OUTPUT INFORMATION --------------------------%
%
OUTPUT_PRECISION = 15
MESH_FILENAME= ../wedge_with_ffd.su2
MESH_FORMAT= SU2
MESH_OUT_FILENAME= def_out_1.su2
SOLUTION_FILENAME= restart_flow.dat
SOLUTION_ADJ_FILENAME= restart_adj.dat
TABULAR_FORMAT= CSV
CONV_FILENAME= history
RESTART_FILENAME= restart_flow.dat
RESTART_ADJ_FILENAME= restart_adj.dat
VOLUME_FILENAME= flow
VOLUME_ADJ_FILENAME= adjoint
GRAD_OBJFUNC_FILENAME= of_grad.dat
SURFACE_FILENAME= surface_flow
SURFACE_ADJ_FILENAME= surface_adjoint
SCREEN_OUTPUT = (OUTER_ITER, RMS_RES[0], RMS_RES[1], RMS_RES[2], RMS_RES[3], RMS_RES[4], AVG_CFL[0], DRAG[0], LIFT[0])
HISTORY_OUTPUT =(OUTER_ITER, RMS_RES[0], RMS_RES[1], RMS_RES[2], RMS_RES[3], RMS_RES[4], AVG_CFL[0], DRAG[0], LIFT[0])
WRT_PERFORMANCE= YES
WRT_AD_STATISTICS= YES
WRT_RESTART_OVERWRITE= YES
WRT_SURFACE_OVERWRITE= YES
WRT_VOLUME_OVERWRITE= YES
WRT_FORCES_BREAKDOWN= YES
BREAKDOWN_FILENAME= forces_breakdown.dat
%
% -------------------- ADJOINT-SOLVER-NUMEROCAL-METHOD -----------------------%
MUSCL_ADJFLOW = NO
SLOPE_LIMITER_ADJFLOW = NONE
MUSCL_ADJTURB = NO
SLOPE_LIMITER_ADJTURB = NONE
DISCADJ_LIN_SOLVER = BCGSTAB
DISCADJ_LIN_PREC = ILU
FROZEN_LIMITER_DISC= NO
FROZEN_VISC_DISC= NO
INCONSISTENT_DISC= YES
CONV_NUM_METHOD_ADJFLOW= JST
TIME_DISCRE_ADJFLOW= EULER_IMPLICIT
RELAXATION_FACTOR_ADJOINT= 1.0
QUASI_NEWTON_NUM_SAMPLES= 20
CFL_REDUCTION_ADJFLOW= 0.8
% Limit value for the adjoint variable
LIMIT_ADJFLOW= 1E6
MG_ADJFLOW= YES
ADJ_JST_SENSOR_COEFF= ( 0.5, 0.02 )
%
% -------------------- FREE-FORM DEFORMATION PARAMETERS -----------------------%
%
DV_MARKER = ( Wall )
FFD_TOLERANCE = 1E-10
FFD_ITERATIONS = 1000
FFD_CONTINUITY = 2ND_DERIVATIVE
DV_FILENAME = mesh_motion.data
FFD_FIX_I = (0, 150)
FFD_FIX_J = (150)
FFD_FIX_K = (150)
FFD_DEFINITION = (Wall, (2, -0.1, 0, 6, 0.9, 0, 6, 1.1, 0, 2, 0.1, 0), (0.0, 0.0, 0.0, 0.0, 0.0, 0.0, 0.0, 0.0, 0.0, 0.0, 0.0, 0.0))
FFD_DEGREE = (20, 10, 0)
DEFINITION_DV = ( 19, 1.0 | Wall | BOX1, 0, 0, 1.0, 0.0 ); ( 19, 1.0 | Wall | BOX1, 1, 0, 1.0, 0.0 ); ( 19, 1.0 | Wall | BOX1, 2, 0, 1.0, 0.0 ); ( 19, 1.0 | Wall | BOX1, 3, 0, 1.0, 0.0 ); ( 19, 1.0 | Wall | BOX1, 4, 0, 1.0, 0.0 ); ( 19, 1.0 | Wall | BOX1, 5, 0, 1.0, 0.0 ); ( 19, 1.0 | Wall | BOX1, 6, 0, 1.0, 0.0 ); ( 19, 1.0 | Wall | BOX1, 7, 0, 1.0, 0.0 ); ( 19, 1.0 | Wall | BOX1, 8, 0, 1.0, 0.0 ); ( 19, 1.0 | Wall | BOX1, 9, 0, 1.0, 0.0 ); ( 19, 1.0 | Wall | BOX1, 10, 0, 1.0, 0.0 ); ( 19, 1.0 | Wall | BOX1, 11, 0, 1.0, 0.0 ); ( 19, 1.0 | Wall | BOX1, 12, 0, 1.0, 0.0 ); ( 19, 1.0 | Wall | BOX1, 13, 0, 1.0, 0.0 ); ( 19, 1.0 | Wall | BOX1, 14, 0, 1.0, 0.0 ); ( 19, 1.0 | Wall | BOX1, 15, 0, 1.0, 0.0 ); ( 19, 1.0 | Wall | BOX1, 16, 0, 1.0, 0.0 ); ( 19, 1.0 | Wall | BOX1, 17, 0, 1.0, 0.0 ); ( 19, 1.0 | Wall | BOX1, 18, 0, 1.0, 0.0 ); ( 19, 1.0 | Wall | BOX1, 19, 0, 1.0, 0.0 ); ( 19, 1.0 | Wall | BOX1, 20, 0, 1.0, 0.0 ); ( 19, 1.0 | Wall | BOX1, 0, 1, 1.0, 0.0 ); ( 19, 1.0 | Wall | BOX1, 1, 1, 1.0, 0.0 ); ( 19, 1.0 | Wall | BOX1, 2, 1, 1.0, 0.0 ); ( 19, 1.0 | Wall | BOX1, 3, 1, 1.0, 0.0 ); ( 19, 1.0 | Wall | BOX1, 4, 1, 1.0, 0.0 ); ( 19, 1.0 | Wall | BOX1, 5, 1, 1.0, 0.0 ); ( 19, 1.0 | Wall | BOX1, 6, 1, 1.0, 0.0 ); ( 19, 1.0 | Wall | BOX1, 7, 1, 1.0, 0.0 ); ( 19, 1.0 | Wall | BOX1, 8, 1, 1.0, 0.0 ); ( 19, 1.0 | Wall | BOX1, 9, 1, 1.0, 0.0 ); ( 19, 1.0 | Wall | BOX1, 10, 1, 1.0, 0.0 ); ( 19, 1.0 | Wall | BOX1, 11, 1, 1.0, 0.0 ); ( 19, 1.0 | Wall | BOX1, 12, 1, 1.0, 0.0 ); ( 19, 1.0 | Wall | BOX1, 13, 1, 1.0, 0.0 ); ( 19, 1.0 | Wall | BOX1, 14, 1, 1.0, 0.0 ); ( 19, 1.0 | Wall | BOX1, 15, 1, 1.0, 0.0 ); ( 19, 1.0 | Wall | BOX1, 16, 1, 1.0, 0.0 ); ( 19, 1.0 | Wall | BOX1, 17, 1, 1.0, 0.0 ); ( 19, 1.0 | Wall | BOX1, 18, 1, 1.0, 0.0 ); ( 19, 1.0 | Wall | BOX1, 19, 1, 1.0, 0.0 ); ( 19, 1.0 | Wall | BOX1, 20, 1, 1.0, 0.0 ); ( 19, 1.0 | Wall | BOX1, 0, 2, 1.0, 0.0 ); ( 19, 1.0 | Wall | BOX1, 1, 2, 1.0, 0.0 ); ( 19, 1.0 | Wall | BOX1, 2, 2, 1.0, 0.0 ); ( 19, 1.0 | Wall | BOX1, 3, 2, 1.0, 0.0 ); ( 19, 1.0 | Wall | BOX1, 4, 2, 1.0, 0.0 ); ( 19, 1.0 | Wall | BOX1, 5, 2, 1.0, 0.0 ); ( 19, 1.0 | Wall | BOX1, 6, 2, 1.0, 0.0 ); ( 19, 1.0 | Wall | BOX1, 7, 2, 1.0, 0.0 ); ( 19, 1.0 | Wall | BOX1, 8, 2, 1.0, 0.0 ); ( 19, 1.0 | Wall | BOX1, 9, 2, 1.0, 0.0 ); ( 19, 1.0 | Wall | BOX1, 10, 2, 1.0, 0.0 ); ( 19, 1.0 | Wall | BOX1, 11, 2, 1.0, 0.0 ); ( 19, 1.0 | Wall | BOX1, 12, 2, 1.0, 0.0 ); ( 19, 1.0 | Wall | BOX1, 13, 2, 1.0, 0.0 ); ( 19, 1.0 | Wall | BOX1, 14, 2, 1.0, 0.0 ); ( 19, 1.0 | Wall | BOX1, 15, 2, 1.0, 0.0 ); ( 19, 1.0 | Wall | BOX1, 16, 2, 1.0, 0.0 ); ( 19, 1.0 | Wall | BOX1, 17, 2, 1.0, 0.0 ); ( 19, 1.0 | Wall | BOX1, 18, 2, 1.0, 0.0 ); ( 19, 1.0 | Wall | BOX1, 19, 2, 1.0, 0.0 ); ( 19, 1.0 | Wall | BOX1, 20, 2, 1.0, 0.0 ); ( 19, 1.0 | Wall | BOX1, 0, 3, 1.0, 0.0 ); ( 19, 1.0 | Wall | BOX1, 1, 3, 1.0, 0.0 ); ( 19, 1.0 | Wall | BOX1, 2, 3, 1.0, 0.0 ); ( 19, 1.0 | Wall | BOX1, 3, 3, 1.0, 0.0 ); ( 19, 1.0 | Wall | BOX1, 4, 3, 1.0, 0.0 ); ( 19, 1.0 | Wall | BOX1, 5, 3, 1.0, 0.0 ); ( 19, 1.0 | Wall | BOX1, 6, 3, 1.0, 0.0 ); ( 19, 1.0 | Wall | BOX1, 7, 3, 1.0, 0.0 ); ( 19, 1.0 | Wall | BOX1, 8, 3, 1.0, 0.0 ); ( 19, 1.0 | Wall | BOX1, 9, 3, 1.0, 0.0 ); ( 19, 1.0 | Wall | BOX1, 10, 3, 1.0, 0.0 ); ( 19, 1.0 | Wall | BOX1, 11, 3, 1.0, 0.0 ); ( 19, 1.0 | Wall | BOX1, 12, 3, 1.0, 0.0 ); ( 19, 1.0 | Wall | BOX1, 13, 3, 1.0, 0.0 ); ( 19, 1.0 | Wall | BOX1, 14, 3, 1.0, 0.0 ); ( 19, 1.0 | Wall | BOX1, 15, 3, 1.0, 0.0 ); ( 19, 1.0 | Wall | BOX1, 16, 3, 1.0, 0.0 ); ( 19, 1.0 | Wall | BOX1, 17, 3, 1.0, 0.0 ); ( 19, 1.0 | Wall | BOX1, 18, 3, 1.0, 0.0 ); ( 19, 1.0 | Wall | BOX1, 19, 3, 1.0, 0.0 ); ( 19, 1.0 | Wall | BOX1, 20, 3, 1.0, 0.0 ); ( 19, 1.0 | Wall | BOX1, 0, 4, 1.0, 0.0 ); ( 19, 1.0 | Wall | BOX1, 1, 4, 1.0, 0.0 ); ( 19, 1.0 | Wall | BOX1, 2, 4, 1.0, 0.0 ); ( 19, 1.0 | Wall | BOX1, 3, 4, 1.0, 0.0 ); ( 19, 1.0 | Wall | BOX1, 4, 4, 1.0, 0.0 ); ( 19, 1.0 | Wall | BOX1, 5, 4, 1.0, 0.0 ); ( 19, 1.0 | Wall | BOX1, 6, 4, 1.0, 0.0 ); ( 19, 1.0 | Wall | BOX1, 7, 4, 1.0, 0.0 ); ( 19, 1.0 | Wall | BOX1, 8, 4, 1.0, 0.0 ); ( 19, 1.0 | Wall | BOX1, 9, 4, 1.0, 0.0 ); ( 19, 1.0 | Wall | BOX1, 10, 4, 1.0, 0.0 ); ( 19, 1.0 | Wall | BOX1, 11, 4, 1.0, 0.0 ); ( 19, 1.0 | Wall | BOX1, 12, 4, 1.0, 0.0 ); ( 19, 1.0 | Wall | BOX1, 13, 4, 1.0, 0.0 ); ( 19, 1.0 | Wall | BOX1, 14, 4, 1.0, 0.0 ); ( 19, 1.0 | Wall | BOX1, 15, 4, 1.0, 0.0 ); ( 19, 1.0 | Wall | BOX1, 16, 4, 1.0, 0.0 ); ( 19, 1.0 | Wall | BOX1, 17, 4, 1.0, 0.0 ); ( 19, 1.0 | Wall | BOX1, 18, 4, 1.0, 0.0 ); ( 19, 1.0 | Wall | BOX1, 19, 4, 1.0, 0.0 ); ( 19, 1.0 | Wall | BOX1, 20, 4, 1.0, 0.0 ); ( 19, 1.0 | Wall | BOX1, 0, 5, 1.0, 0.0 ); ( 19, 1.0 | Wall | BOX1, 1, 5, 1.0, 0.0 ); ( 19, 1.0 | Wall | BOX1, 2, 5, 1.0, 0.0 ); ( 19, 1.0 | Wall | BOX1, 3, 5, 1.0, 0.0 ); ( 19, 1.0 | Wall | BOX1, 4, 5, 1.0, 0.0 ); ( 19, 1.0 | Wall | BOX1, 5, 5, 1.0, 0.0 ); ( 19, 1.0 | Wall | BOX1, 6, 5, 1.0, 0.0 ); ( 19, 1.0 | Wall | BOX1, 7, 5, 1.0, 0.0 ); ( 19, 1.0 | Wall | BOX1, 8, 5, 1.0, 0.0 ); ( 19, 1.0 | Wall | BOX1, 9, 5, 1.0, 0.0 ); ( 19, 1.0 | Wall | BOX1, 10, 5, 1.0, 0.0 ); ( 19, 1.0 | Wall | BOX1, 11, 5, 1.0, 0.0 ); ( 19, 1.0 | Wall | BOX1, 12, 5, 1.0, 0.0 ); ( 19, 1.0 | Wall | BOX1, 13, 5, 1.0, 0.0 ); ( 19, 1.0 | Wall | BOX1, 14, 5, 1.0, 0.0 ); ( 19, 1.0 | Wall | BOX1, 15, 5, 1.0, 0.0 ); ( 19, 1.0 | Wall | BOX1, 16, 5, 1.0, 0.0 ); ( 19, 1.0 | Wall | BOX1, 17, 5, 1.0, 0.0 ); ( 19, 1.0 | Wall | BOX1, 18, 5, 1.0, 0.0 ); ( 19, 1.0 | Wall | BOX1, 19, 5, 1.0, 0.0 ); ( 19, 1.0 | Wall | BOX1, 20, 5, 1.0, 0.0 ); ( 19, 1.0 | Wall | BOX1, 0, 6, 1.0, 0.0 ); ( 19, 1.0 | Wall | BOX1, 1, 6, 1.0, 0.0 ); ( 19, 1.0 | Wall | BOX1, 2, 6, 1.0, 0.0 ); ( 19, 1.0 | Wall | BOX1, 3, 6, 1.0, 0.0 ); ( 19, 1.0 | Wall | BOX1, 4, 6, 1.0, 0.0 ); ( 19, 1.0 | Wall | BOX1, 5, 6, 1.0, 0.0 ); ( 19, 1.0 | Wall | BOX1, 6, 6, 1.0, 0.0 ); ( 19, 1.0 | Wall | BOX1, 7, 6, 1.0, 0.0 ); ( 19, 1.0 | Wall | BOX1, 8, 6, 1.0, 0.0 ); ( 19, 1.0 | Wall | BOX1, 9, 6, 1.0, 0.0 ); ( 19, 1.0 | Wall | BOX1, 10, 6, 1.0, 0.0 ); ( 19, 1.0 | Wall | BOX1, 11, 6, 1.0, 0.0 ); ( 19, 1.0 | Wall | BOX1, 12, 6, 1.0, 0.0 ); ( 19, 1.0 | Wall | BOX1, 13, 6, 1.0, 0.0 ); ( 19, 1.0 | Wall | BOX1, 14, 6, 1.0, 0.0 ); ( 19, 1.0 | Wall | BOX1, 15, 6, 1.0, 0.0 ); ( 19, 1.0 | Wall | BOX1, 16, 6, 1.0, 0.0 ); ( 19, 1.0 | Wall | BOX1, 17, 6, 1.0, 0.0 ); ( 19, 1.0 | Wall | BOX1, 18, 6, 1.0, 0.0 ); ( 19, 1.0 | Wall | BOX1, 19, 6, 1.0, 0.0 ); ( 19, 1.0 | Wall | BOX1, 20, 6, 1.0, 0.0 ); ( 19, 1.0 | Wall | BOX1, 0, 7, 1.0, 0.0 ); ( 19, 1.0 | Wall | BOX1, 1, 7, 1.0, 0.0 ); ( 19, 1.0 | Wall | BOX1, 2, 7, 1.0, 0.0 ); ( 19, 1.0 | Wall | BOX1, 3, 7, 1.0, 0.0 ); ( 19, 1.0 | Wall | BOX1, 4, 7, 1.0, 0.0 ); ( 19, 1.0 | Wall | BOX1, 5, 7, 1.0, 0.0 ); ( 19, 1.0 | Wall | BOX1, 6, 7, 1.0, 0.0 ); ( 19, 1.0 | Wall | BOX1, 7, 7, 1.0, 0.0 ); ( 19, 1.0 | Wall | BOX1, 8, 7, 1.0, 0.0 ); ( 19, 1.0 | Wall | BOX1, 9, 7, 1.0, 0.0 ); ( 19, 1.0 | Wall | BOX1, 10, 7, 1.0, 0.0 ); ( 19, 1.0 | Wall | BOX1, 11, 7, 1.0, 0.0 ); ( 19, 1.0 | Wall | BOX1, 12, 7, 1.0, 0.0 ); ( 19, 1.0 | Wall | BOX1, 13, 7, 1.0, 0.0 ); ( 19, 1.0 | Wall | BOX1, 14, 7, 1.0, 0.0 ); ( 19, 1.0 | Wall | BOX1, 15, 7, 1.0, 0.0 ); ( 19, 1.0 | Wall | BOX1, 16, 7, 1.0, 0.0 ); ( 19, 1.0 | Wall | BOX1, 17, 7, 1.0, 0.0 ); ( 19, 1.0 | Wall | BOX1, 18, 7, 1.0, 0.0 ); ( 19, 1.0 | Wall | BOX1, 19, 7, 1.0, 0.0 ); ( 19, 1.0 | Wall | BOX1, 20, 7, 1.0, 0.0 ); ( 19, 1.0 | Wall | BOX1, 0, 8, 1.0, 0.0 ); ( 19, 1.0 | Wall | BOX1, 1, 8, 1.0, 0.0 ); ( 19, 1.0 | Wall | BOX1, 2, 8, 1.0, 0.0 ); ( 19, 1.0 | Wall | BOX1, 3, 8, 1.0, 0.0 ); ( 19, 1.0 | Wall | BOX1, 4, 8, 1.0, 0.0 ); ( 19, 1.0 | Wall | BOX1, 5, 8, 1.0, 0.0 ); ( 19, 1.0 | Wall | BOX1, 6, 8, 1.0, 0.0 ); ( 19, 1.0 | Wall | BOX1, 7, 8, 1.0, 0.0 ); ( 19, 1.0 | Wall | BOX1, 8, 8, 1.0, 0.0 ); ( 19, 1.0 | Wall | BOX1, 9, 8, 1.0, 0.0 ); ( 19, 1.0 | Wall | BOX1, 10, 8, 1.0, 0.0 ); ( 19, 1.0 | Wall | BOX1, 11, 8, 1.0, 0.0 ); ( 19, 1.0 | Wall | BOX1, 12, 8, 1.0, 0.0 ); ( 19, 1.0 | Wall | BOX1, 13, 8, 1.0, 0.0 ); ( 19, 1.0 | Wall | BOX1, 14, 8, 1.0, 0.0 ); ( 19, 1.0 | Wall | BOX1, 15, 8, 1.0, 0.0 ); ( 19, 1.0 | Wall | BOX1, 16, 8, 1.0, 0.0 ); ( 19, 1.0 | Wall | BOX1, 17, 8, 1.0, 0.0 ); ( 19, 1.0 | Wall | BOX1, 18, 8, 1.0, 0.0 ); ( 19, 1.0 | Wall | BOX1, 19, 8, 1.0, 0.0 ); ( 19, 1.0 | Wall | BOX1, 20, 8, 1.0, 0.0 ); ( 19, 1.0 | Wall | BOX1, 0, 9, 1.0, 0.0 ); ( 19, 1.0 | Wall | BOX1, 1, 9, 1.0, 0.0 ); ( 19, 1.0 | Wall | BOX1, 2, 9, 1.0, 0.0 ); ( 19, 1.0 | Wall | BOX1, 3, 9, 1.0, 0.0 ); ( 19, 1.0 | Wall | BOX1, 4, 9, 1.0, 0.0 ); ( 19, 1.0 | Wall | BOX1, 5, 9, 1.0, 0.0 ); ( 19, 1.0 | Wall | BOX1, 6, 9, 1.0, 0.0 ); ( 19, 1.0 | Wall | BOX1, 7, 9, 1.0, 0.0 ); ( 19, 1.0 | Wall | BOX1, 8, 9, 1.0, 0.0 ); ( 19, 1.0 | Wall | BOX1, 9, 9, 1.0, 0.0 ); ( 19, 1.0 | Wall | BOX1, 10, 9, 1.0, 0.0 ); ( 19, 1.0 | Wall | BOX1, 11, 9, 1.0, 0.0 ); ( 19, 1.0 | Wall | BOX1, 12, 9, 1.0, 0.0 ); ( 19, 1.0 | Wall | BOX1, 13, 9, 1.0, 0.0 ); ( 19, 1.0 | Wall | BOX1, 14, 9, 1.0, 0.0 ); ( 19, 1.0 | Wall | BOX1, 15, 9, 1.0, 0.0 ); ( 19, 1.0 | Wall | BOX1, 16, 9, 1.0, 0.0 ); ( 19, 1.0 | Wall | BOX1, 17, 9, 1.0, 0.0 ); ( 19, 1.0 | Wall | BOX1, 18, 9, 1.0, 0.0 ); ( 19, 1.0 | Wall | BOX1, 19, 9, 1.0, 0.0 ); ( 19, 1.0 | Wall | BOX1, 20, 9, 1.0, 0.0 ); ( 19, 1.0 | Wall | BOX1, 0, 10, 1.0, 0.0 ); ( 19, 1.0 | Wall | BOX1, 1, 10, 1.0, 0.0 ); ( 19, 1.0 | Wall | BOX1, 2, 10, 1.0, 0.0 ); ( 19, 1.0 | Wall | BOX1, 3, 10, 1.0, 0.0 ); ( 19, 1.0 | Wall | BOX1, 4, 10, 1.0, 0.0 ); ( 19, 1.0 | Wall | BOX1, 5, 10, 1.0, 0.0 ); ( 19, 1.0 | Wall | BOX1, 6, 10, 1.0, 0.0 ); ( 19, 1.0 | Wall | BOX1, 7, 10, 1.0, 0.0 ); ( 19, 1.0 | Wall | BOX1, 8, 10, 1.0, 0.0 ); ( 19, 1.0 | Wall | BOX1, 9, 10, 1.0, 0.0 ); ( 19, 1.0 | Wall | BOX1, 10, 10, 1.0, 0.0 ); ( 19, 1.0 | Wall | BOX1, 11, 10, 1.0, 0.0 ); ( 19, 1.0 | Wall | BOX1, 12, 10, 1.0, 0.0 ); ( 19, 1.0 | Wall | BOX1, 13, 10, 1.0, 0.0 ); ( 19, 1.0 | Wall | BOX1, 14, 10, 1.0, 0.0 ); ( 19, 1.0 | Wall | BOX1, 15, 10, 1.0, 0.0 ); ( 19, 1.0 | Wall | BOX1, 16, 10, 1.0, 0.0 ); ( 19, 1.0 | Wall | BOX1, 17, 10, 1.0, 0.0 ); ( 19, 1.0 | Wall | BOX1, 18, 10, 1.0, 0.0 ); ( 19, 1.0 | Wall | BOX1, 19, 10, 1.0, 0.0 ); ( 19, 1.0 | Wall | BOX1, 20, 10, 1.0, 0.0 ); ( 19, 1.0 | Wall | BOX1, 0, 0, 0.0, 1.0 ); ( 19, 1.0 | Wall | BOX1, 1, 0, 0.0, 1.0 ); ( 19, 1.0 | Wall | BOX1, 2, 0, 0.0, 1.0 ); ( 19, 1.0 | Wall | BOX1, 3, 0, 0.0, 1.0 ); ( 19, 1.0 | Wall | BOX1, 4, 0, 0.0, 1.0 ); ( 19, 1.0 | Wall | BOX1, 5, 0, 0.0, 1.0 ); ( 19, 1.0 | Wall | BOX1, 6, 0, 0.0, 1.0 ); ( 19, 1.0 | Wall | BOX1, 7, 0, 0.0, 1.0 ); ( 19, 1.0 | Wall | BOX1, 8, 0, 0.0, 1.0 ); ( 19, 1.0 | Wall | BOX1, 9, 0, 0.0, 1.0 ); ( 19, 1.0 | Wall | BOX1, 10, 0, 0.0, 1.0 ); ( 19, 1.0 | Wall | BOX1, 11, 0, 0.0, 1.0 ); ( 19, 1.0 | Wall | BOX1, 12, 0, 0.0, 1.0 ); ( 19, 1.0 | Wall | BOX1, 13, 0, 0.0, 1.0 ); ( 19, 1.0 | Wall | BOX1, 14, 0, 0.0, 1.0 ); ( 19, 1.0 | Wall | BOX1, 15, 0, 0.0, 1.0 ); ( 19, 1.0 | Wall | BOX1, 16, 0, 0.0, 1.0 ); ( 19, 1.0 | Wall | BOX1, 17, 0, 0.0, 1.0 ); ( 19, 1.0 | Wall | BOX1, 18, 0, 0.0, 1.0 ); ( 19, 1.0 | Wall | BOX1, 19, 0, 0.0, 1.0 ); ( 19, 1.0 | Wall | BOX1, 20, 0, 0.0, 1.0 ); ( 19, 1.0 | Wall | BOX1, 0, 1, 0.0, 1.0 ); ( 19, 1.0 | Wall | BOX1, 1, 1, 0.0, 1.0 ); ( 19, 1.0 | Wall | BOX1, 2, 1, 0.0, 1.0 ); ( 19, 1.0 | Wall | BOX1, 3, 1, 0.0, 1.0 ); ( 19, 1.0 | Wall | BOX1, 4, 1, 0.0, 1.0 ); ( 19, 1.0 | Wall | BOX1, 5, 1, 0.0, 1.0 ); ( 19, 1.0 | Wall | BOX1, 6, 1, 0.0, 1.0 ); ( 19, 1.0 | Wall | BOX1, 7, 1, 0.0, 1.0 ); ( 19, 1.0 | Wall | BOX1, 8, 1, 0.0, 1.0 ); ( 19, 1.0 | Wall | BOX1, 9, 1, 0.0, 1.0 ); ( 19, 1.0 | Wall | BOX1, 10, 1, 0.0, 1.0 ); ( 19, 1.0 | Wall | BOX1, 11, 1, 0.0, 1.0 ); ( 19, 1.0 | Wall | BOX1, 12, 1, 0.0, 1.0 ); ( 19, 1.0 | Wall | BOX1, 13, 1, 0.0, 1.0 ); ( 19, 1.0 | Wall | BOX1, 14, 1, 0.0, 1.0 ); ( 19, 1.0 | Wall | BOX1, 15, 1, 0.0, 1.0 ); ( 19, 1.0 | Wall | BOX1, 16, 1, 0.0, 1.0 ); ( 19, 1.0 | Wall | BOX1, 17, 1, 0.0, 1.0 ); ( 19, 1.0 | Wall | BOX1, 18, 1, 0.0, 1.0 ); ( 19, 1.0 | Wall | BOX1, 19, 1, 0.0, 1.0 ); ( 19, 1.0 | Wall | BOX1, 20, 1, 0.0, 1.0 ); ( 19, 1.0 | Wall | BOX1, 0, 2, 0.0, 1.0 ); ( 19, 1.0 | Wall | BOX1, 1, 2, 0.0, 1.0 ); ( 19, 1.0 | Wall | BOX1, 2, 2, 0.0, 1.0 ); ( 19, 1.0 | Wall | BOX1, 3, 2, 0.0, 1.0 ); ( 19, 1.0 | Wall | BOX1, 4, 2, 0.0, 1.0 ); ( 19, 1.0 | Wall | BOX1, 5, 2, 0.0, 1.0 ); ( 19, 1.0 | Wall | BOX1, 6, 2, 0.0, 1.0 ); ( 19, 1.0 | Wall | BOX1, 7, 2, 0.0, 1.0 ); ( 19, 1.0 | Wall | BOX1, 8, 2, 0.0, 1.0 ); ( 19, 1.0 | Wall | BOX1, 9, 2, 0.0, 1.0 ); ( 19, 1.0 | Wall | BOX1, 10, 2, 0.0, 1.0 ); ( 19, 1.0 | Wall | BOX1, 11, 2, 0.0, 1.0 ); ( 19, 1.0 | Wall | BOX1, 12, 2, 0.0, 1.0 ); ( 19, 1.0 | Wall | BOX1, 13, 2, 0.0, 1.0 ); ( 19, 1.0 | Wall | BOX1, 14, 2, 0.0, 1.0 ); ( 19, 1.0 | Wall | BOX1, 15, 2, 0.0, 1.0 ); ( 19, 1.0 | Wall | BOX1, 16, 2, 0.0, 1.0 ); ( 19, 1.0 | Wall | BOX1, 17, 2, 0.0, 1.0 ); ( 19, 1.0 | Wall | BOX1, 18, 2, 0.0, 1.0 ); ( 19, 1.0 | Wall | BOX1, 19, 2, 0.0, 1.0 ); ( 19, 1.0 | Wall | BOX1, 20, 2, 0.0, 1.0 ); ( 19, 1.0 | Wall | BOX1, 0, 3, 0.0, 1.0 ); ( 19, 1.0 | Wall | BOX1, 1, 3, 0.0, 1.0 ); ( 19, 1.0 | Wall | BOX1, 2, 3, 0.0, 1.0 ); ( 19, 1.0 | Wall | BOX1, 3, 3, 0.0, 1.0 ); ( 19, 1.0 | Wall | BOX1, 4, 3, 0.0, 1.0 ); ( 19, 1.0 | Wall | BOX1, 5, 3, 0.0, 1.0 ); ( 19, 1.0 | Wall | BOX1, 6, 3, 0.0, 1.0 ); ( 19, 1.0 | Wall | BOX1, 7, 3, 0.0, 1.0 ); ( 19, 1.0 | Wall | BOX1, 8, 3, 0.0, 1.0 ); ( 19, 1.0 | Wall | BOX1, 9, 3, 0.0, 1.0 ); ( 19, 1.0 | Wall | BOX1, 10, 3, 0.0, 1.0 ); ( 19, 1.0 | Wall | BOX1, 11, 3, 0.0, 1.0 ); ( 19, 1.0 | Wall | BOX1, 12, 3, 0.0, 1.0 ); ( 19, 1.0 | Wall | BOX1, 13, 3, 0.0, 1.0 ); ( 19, 1.0 | Wall | BOX1, 14, 3, 0.0, 1.0 ); ( 19, 1.0 | Wall | BOX1, 15, 3, 0.0, 1.0 ); ( 19, 1.0 | Wall | BOX1, 16, 3, 0.0, 1.0 ); ( 19, 1.0 | Wall | BOX1, 17, 3, 0.0, 1.0 ); ( 19, 1.0 | Wall | BOX1, 18, 3, 0.0, 1.0 ); ( 19, 1.0 | Wall | BOX1, 19, 3, 0.0, 1.0 ); ( 19, 1.0 | Wall | BOX1, 20, 3, 0.0, 1.0 ); ( 19, 1.0 | Wall | BOX1, 0, 4, 0.0, 1.0 ); ( 19, 1.0 | Wall | BOX1, 1, 4, 0.0, 1.0 ); ( 19, 1.0 | Wall | BOX1, 2, 4, 0.0, 1.0 ); ( 19, 1.0 | Wall | BOX1, 3, 4, 0.0, 1.0 ); ( 19, 1.0 | Wall | BOX1, 4, 4, 0.0, 1.0 ); ( 19, 1.0 | Wall | BOX1, 5, 4, 0.0, 1.0 ); ( 19, 1.0 | Wall | BOX1, 6, 4, 0.0, 1.0 ); ( 19, 1.0 | Wall | BOX1, 7, 4, 0.0, 1.0 ); ( 19, 1.0 | Wall | BOX1, 8, 4, 0.0, 1.0 ); ( 19, 1.0 | Wall | BOX1, 9, 4, 0.0, 1.0 ); ( 19, 1.0 | Wall | BOX1, 10, 4, 0.0, 1.0 ); ( 19, 1.0 | Wall | BOX1, 11, 4, 0.0, 1.0 ); ( 19, 1.0 | Wall | BOX1, 12, 4, 0.0, 1.0 ); ( 19, 1.0 | Wall | BOX1, 13, 4, 0.0, 1.0 ); ( 19, 1.0 | Wall | BOX1, 14, 4, 0.0, 1.0 ); ( 19, 1.0 | Wall | BOX1, 15, 4, 0.0, 1.0 ); ( 19, 1.0 | Wall | BOX1, 16, 4, 0.0, 1.0 ); ( 19, 1.0 | Wall | BOX1, 17, 4, 0.0, 1.0 ); ( 19, 1.0 | Wall | BOX1, 18, 4, 0.0, 1.0 ); ( 19, 1.0 | Wall | BOX1, 19, 4, 0.0, 1.0 ); ( 19, 1.0 | Wall | BOX1, 20, 4, 0.0, 1.0 ); ( 19, 1.0 | Wall | BOX1, 0, 5, 0.0, 1.0 ); ( 19, 1.0 | Wall | BOX1, 1, 5, 0.0, 1.0 ); ( 19, 1.0 | Wall | BOX1, 2, 5, 0.0, 1.0 ); ( 19, 1.0 | Wall | BOX1, 3, 5, 0.0, 1.0 ); ( 19, 1.0 | Wall | BOX1, 4, 5, 0.0, 1.0 ); ( 19, 1.0 | Wall | BOX1, 5, 5, 0.0, 1.0 ); ( 19, 1.0 | Wall | BOX1, 6, 5, 0.0, 1.0 ); ( 19, 1.0 | Wall | BOX1, 7, 5, 0.0, 1.0 ); ( 19, 1.0 | Wall | BOX1, 8, 5, 0.0, 1.0 ); ( 19, 1.0 | Wall | BOX1, 9, 5, 0.0, 1.0 ); ( 19, 1.0 | Wall | BOX1, 10, 5, 0.0, 1.0 ); ( 19, 1.0 | Wall | BOX1, 11, 5, 0.0, 1.0 ); ( 19, 1.0 | Wall | BOX1, 12, 5, 0.0, 1.0 ); ( 19, 1.0 | Wall | BOX1, 13, 5, 0.0, 1.0 ); ( 19, 1.0 | Wall | BOX1, 14, 5, 0.0, 1.0 ); ( 19, 1.0 | Wall | BOX1, 15, 5, 0.0, 1.0 ); ( 19, 1.0 | Wall | BOX1, 16, 5, 0.0, 1.0 ); ( 19, 1.0 | Wall | BOX1, 17, 5, 0.0, 1.0 ); ( 19, 1.0 | Wall | BOX1, 18, 5, 0.0, 1.0 ); ( 19, 1.0 | Wall | BOX1, 19, 5, 0.0, 1.0 ); ( 19, 1.0 | Wall | BOX1, 20, 5, 0.0, 1.0 ); ( 19, 1.0 | Wall | BOX1, 0, 6, 0.0, 1.0 ); ( 19, 1.0 | Wall | BOX1, 1, 6, 0.0, 1.0 ); ( 19, 1.0 | Wall | BOX1, 2, 6, 0.0, 1.0 ); ( 19, 1.0 | Wall | BOX1, 3, 6, 0.0, 1.0 ); ( 19, 1.0 | Wall | BOX1, 4, 6, 0.0, 1.0 ); ( 19, 1.0 | Wall | BOX1, 5, 6, 0.0, 1.0 ); ( 19, 1.0 | Wall | BOX1, 6, 6, 0.0, 1.0 ); ( 19, 1.0 | Wall | BOX1, 7, 6, 0.0, 1.0 ); ( 19, 1.0 | Wall | BOX1, 8, 6, 0.0, 1.0 ); ( 19, 1.0 | Wall | BOX1, 9, 6, 0.0, 1.0 ); ( 19, 1.0 | Wall | BOX1, 10, 6, 0.0, 1.0 ); ( 19, 1.0 | Wall | BOX1, 11, 6, 0.0, 1.0 ); ( 19, 1.0 | Wall | BOX1, 12, 6, 0.0, 1.0 ); ( 19, 1.0 | Wall | BOX1, 13, 6, 0.0, 1.0 ); ( 19, 1.0 | Wall | BOX1, 14, 6, 0.0, 1.0 ); ( 19, 1.0 | Wall | BOX1, 15, 6, 0.0, 1.0 ); ( 19, 1.0 | Wall | BOX1, 16, 6, 0.0, 1.0 ); ( 19, 1.0 | Wall | BOX1, 17, 6, 0.0, 1.0 ); ( 19, 1.0 | Wall | BOX1, 18, 6, 0.0, 1.0 ); ( 19, 1.0 | Wall | BOX1, 19, 6, 0.0, 1.0 ); ( 19, 1.0 | Wall | BOX1, 20, 6, 0.0, 1.0 ); ( 19, 1.0 | Wall | BOX1, 0, 7, 0.0, 1.0 ); ( 19, 1.0 | Wall | BOX1, 1, 7, 0.0, 1.0 ); ( 19, 1.0 | Wall | BOX1, 2, 7, 0.0, 1.0 ); ( 19, 1.0 | Wall | BOX1, 3, 7, 0.0, 1.0 ); ( 19, 1.0 | Wall | BOX1, 4, 7, 0.0, 1.0 ); ( 19, 1.0 | Wall | BOX1, 5, 7, 0.0, 1.0 ); ( 19, 1.0 | Wall | BOX1, 6, 7, 0.0, 1.0 ); ( 19, 1.0 | Wall | BOX1, 7, 7, 0.0, 1.0 ); ( 19, 1.0 | Wall | BOX1, 8, 7, 0.0, 1.0 ); ( 19, 1.0 | Wall | BOX1, 9, 7, 0.0, 1.0 ); ( 19, 1.0 | Wall | BOX1, 10, 7, 0.0, 1.0 ); ( 19, 1.0 | Wall | BOX1, 11, 7, 0.0, 1.0 ); ( 19, 1.0 | Wall | BOX1, 12, 7, 0.0, 1.0 ); ( 19, 1.0 | Wall | BOX1, 13, 7, 0.0, 1.0 ); ( 19, 1.0 | Wall | BOX1, 14, 7, 0.0, 1.0 ); ( 19, 1.0 | Wall | BOX1, 15, 7, 0.0, 1.0 ); ( 19, 1.0 | Wall | BOX1, 16, 7, 0.0, 1.0 ); ( 19, 1.0 | Wall | BOX1, 17, 7, 0.0, 1.0 ); ( 19, 1.0 | Wall | BOX1, 18, 7, 0.0, 1.0 ); ( 19, 1.0 | Wall | BOX1, 19, 7, 0.0, 1.0 ); ( 19, 1.0 | Wall | BOX1, 20, 7, 0.0, 1.0 ); ( 19, 1.0 | Wall | BOX1, 0, 8, 0.0, 1.0 ); ( 19, 1.0 | Wall | BOX1, 1, 8, 0.0, 1.0 ); ( 19, 1.0 | Wall | BOX1, 2, 8, 0.0, 1.0 ); ( 19, 1.0 | Wall | BOX1, 3, 8, 0.0, 1.0 ); ( 19, 1.0 | Wall | BOX1, 4, 8, 0.0, 1.0 ); ( 19, 1.0 | Wall | BOX1, 5, 8, 0.0, 1.0 ); ( 19, 1.0 | Wall | BOX1, 6, 8, 0.0, 1.0 ); ( 19, 1.0 | Wall | BOX1, 7, 8, 0.0, 1.0 ); ( 19, 1.0 | Wall | BOX1, 8, 8, 0.0, 1.0 ); ( 19, 1.0 | Wall | BOX1, 9, 8, 0.0, 1.0 ); ( 19, 1.0 | Wall | BOX1, 10, 8, 0.0, 1.0 ); ( 19, 1.0 | Wall | BOX1, 11, 8, 0.0, 1.0 ); ( 19, 1.0 | Wall | BOX1, 12, 8, 0.0, 1.0 ); ( 19, 1.0 | Wall | BOX1, 13, 8, 0.0, 1.0 ); ( 19, 1.0 | Wall | BOX1, 14, 8, 0.0, 1.0 ); ( 19, 1.0 | Wall | BOX1, 15, 8, 0.0, 1.0 ); ( 19, 1.0 | Wall | BOX1, 16, 8, 0.0, 1.0 ); ( 19, 1.0 | Wall | BOX1, 17, 8, 0.0, 1.0 ); ( 19, 1.0 | Wall | BOX1, 18, 8, 0.0, 1.0 ); ( 19, 1.0 | Wall | BOX1, 19, 8, 0.0, 1.0 ); ( 19, 1.0 | Wall | BOX1, 20, 8, 0.0, 1.0 ); ( 19, 1.0 | Wall | BOX1, 0, 9, 0.0, 1.0 ); ( 19, 1.0 | Wall | BOX1, 1, 9, 0.0, 1.0 ); ( 19, 1.0 | Wall | BOX1, 2, 9, 0.0, 1.0 ); ( 19, 1.0 | Wall | BOX1, 3, 9, 0.0, 1.0 ); ( 19, 1.0 | Wall | BOX1, 4, 9, 0.0, 1.0 ); ( 19, 1.0 | Wall | BOX1, 5, 9, 0.0, 1.0 ); ( 19, 1.0 | Wall | BOX1, 6, 9, 0.0, 1.0 ); ( 19, 1.0 | Wall | BOX1, 7, 9, 0.0, 1.0 ); ( 19, 1.0 | Wall | BOX1, 8, 9, 0.0, 1.0 ); ( 19, 1.0 | Wall | BOX1, 9, 9, 0.0, 1.0 ); ( 19, 1.0 | Wall | BOX1, 10, 9, 0.0, 1.0 ); ( 19, 1.0 | Wall | BOX1, 11, 9, 0.0, 1.0 ); ( 19, 1.0 | Wall | BOX1, 12, 9, 0.0, 1.0 ); ( 19, 1.0 | Wall | BOX1, 13, 9, 0.0, 1.0 ); ( 19, 1.0 | Wall | BOX1, 14, 9, 0.0, 1.0 ); ( 19, 1.0 | Wall | BOX1, 15, 9, 0.0, 1.0 ); ( 19, 1.0 | Wall | BOX1, 16, 9, 0.0, 1.0 ); ( 19, 1.0 | Wall | BOX1, 17, 9, 0.0, 1.0 ); ( 19, 1.0 | Wall | BOX1, 18, 9, 0.0, 1.0 ); ( 19, 1.0 | Wall | BOX1, 19, 9, 0.0, 1.0 ); ( 19, 1.0 | Wall | BOX1, 20, 9, 0.0, 1.0 ); ( 19, 1.0 | Wall | BOX1, 0, 10, 0.0, 1.0 ); ( 19, 1.0 | Wall | BOX1, 1, 10, 0.0, 1.0 ); ( 19, 1.0 | Wall | BOX1, 2, 10, 0.0, 1.0 ); ( 19, 1.0 | Wall | BOX1, 3, 10, 0.0, 1.0 ); ( 19, 1.0 | Wall | BOX1, 4, 10, 0.0, 1.0 ); ( 19, 1.0 | Wall | BOX1, 5, 10, 0.0, 1.0 ); ( 19, 1.0 | Wall | BOX1, 6, 10, 0.0, 1.0 ); ( 19, 1.0 | Wall | BOX1, 7, 10, 0.0, 1.0 ); ( 19, 1.0 | Wall | BOX1, 8, 10, 0.0, 1.0 ); ( 19, 1.0 | Wall | BOX1, 9, 10, 0.0, 1.0 ); ( 19, 1.0 | Wall | BOX1, 10, 10, 0.0, 1.0 ); ( 19, 1.0 | Wall | BOX1, 11, 10, 0.0, 1.0 ); ( 19, 1.0 | Wall | BOX1, 12, 10, 0.0, 1.0 ); ( 19, 1.0 | Wall | BOX1, 13, 10, 0.0, 1.0 ); ( 19, 1.0 | Wall | BOX1, 14, 10, 0.0, 1.0 ); ( 19, 1.0 | Wall | BOX1, 15, 10, 0.0, 1.0 ); ( 19, 1.0 | Wall | BOX1, 16, 10, 0.0, 1.0 ); ( 19, 1.0 | Wall | BOX1, 17, 10, 0.0, 1.0 ); ( 19, 1.0 | Wall | BOX1, 18, 10, 0.0, 1.0 ); ( 19, 1.0 | Wall | BOX1, 19, 10, 0.0, 1.0 ); ( 19, 1.0 | Wall | BOX1, 20, 10, 0.0, 1.0 )

% FOR DOT: