% ------------- DIRECT, ADJOINT, AND LINEARIZED PROBLEM DEFINITION ------------%
%
% Physical governing equations (EULER, NAVIER_STOKES,
%                               WAVE_EQUATION, HEAT_EQUATION, FEM_ELASTICITY,
%                               POISSON_EQUATION)
SOLVER= EULER
MATH_PROBLEM= DIRECT
RESTART_SOL= NO
MULTIZONE= YES
OUTER_ITER = 10000
TIME_DOMAIN = NO
INNER_ITER = 1
%
% ----------- COMPRESSIBLE AND INCOMPRESSIBLE FREE-STREAM DEFINITION ----------%
%
% Mach number (non-dimensional, based on the free-stream values)
MACH_NUMBER= 2.0
AOA= 0.0
SIDESLIP_ANGLE= 0.0
FREESTREAM_PRESSURE= 100000.0
FREESTREAM_TEMPERATURE= 300.0
REF_DIMENSIONALIZATION= DIMENSIONAL
%
% ---------------------- REFERENCE VALUE DEFINITION ---------------------------%
%
% Reference origin for moment computation
REF_ORIGIN_MOMENT_X = 0.25
REF_ORIGIN_MOMENT_Y = 0.00
REF_ORIGIN_MOMENT_Z = 0.00
REF_LENGTH= 1.0
REF_AREA= 1.0
%
% -------------------- BOUNDARY CONDITION DEFINITION --------------------------%
%
% Euler wall boundary marker(s) (NONE = no marker)
MARKER_EULER= ( Wall )
MARKER_SUPERSONIC_INLET= ( Inlet, 300.0, 100000.0, 695.4290761825, 0.0, 0.0 )
MARKER_SUPERSONIC_OUTLET= ( Outlet )
MARKER_FAR = (Far)
%
% ------------------------ SURFACES IDENTIFICATION ----------------------------%
%
MARKER_PLOTTING= ( Wall )
MARKER_MONITORING= ( Wall )
MARKER_DESIGNING = ( Wall )
MARKER_ANALYZE = ( Wall )
MARKER_ANALYZE_AVERAGE = MASSFLUX
%
% ------------- COMMON PARAMETERS DEFINING THE NUMERICAL METHOD ---------------%
%
% Numerical method for spatial gradients (GREEN_GAUSS, LEAST_SQUARES, 
%                                         WEIGHTED_LEAST_SQUARES)
NUM_METHOD_GRAD= WEIGHTED_LEAST_SQUARES
CFL_NUMBER= 5.0
CFL_ADAPT= YES
CFL_ADAPT_PARAM= ( 0.9, 1.1, 0.1, 1e10 )
RK_ALPHA_COEFF= ( 0.66667, 0.66667, 1.000000 )
LINEAR_SOLVER= BCGSTAB
LINEAR_SOLVER_PREC= ILU
LINEAR_SOLVER_ERROR= 1E-5
LINEAR_SOLVER_ITER= 50
NEWTON_KRYLOV= YES
NEWTON_KRYLOV_IPARAM= (0, 5, 1) % n0, np, ft
NEWTON_KRYLOV_DPARAM= (0.0, 1e-5, -1.0, 1e-3) % r0, tp, rf, e
%
% -------------------------- MULTIGRID PARAMETERS -----------------------------%
%
% Multi-Grid Levels (0 = no multi-grid)
MGLEVEL= 3
MGCYCLE= W_CYCLE
MG_PRE_SMOOTH= ( 1, 2, 3, 3 )
MG_POST_SMOOTH= ( 0, 0, 0, 0 )
MG_CORRECTION_SMOOTH= ( 0, 0, 0, 0 )
MG_DAMP_RESTRICTION= 1.0
MG_DAMP_PROLONGATION= 1.0
%
% -------------------- FLOW NUMERICAL METHOD DEFINITION -----------------------%
%
% Convective numerical method (JST, LAX-FRIEDRICH, CUSP, ROE, AUSM, HLLC,
%                              TURKEL_PREC, MSW)
CONV_NUM_METHOD_FLOW= JST
JST_SENSOR_COEFF= ( 0.5, 0.02 )
TIME_DISCRE_FLOW= EULER_IMPLICIT
%
% --------------------------- CONVERGENCE PARAMETERS --------------------------%
%
CONV_FIELD= RMS_DENSITY[0]
CONV_RESIDUAL_MINVAL= -13
CONV_STARTITER= 10
CONV_CAUCHY_ELEMS= 100
CONV_CAUCHY_EPS= 1E-10
%
% ------------------------- INPUT/OUTPUT INFORMATION --------------------------%
%
OUTPUT_PRECISION = 15
MESH_FILENAME= ../wedge_with_ffd.su2
MESH_FORMAT= SU2
MESH_OUT_FILENAME= def_out_1.su2
SOLUTION_FILENAME= restart_flow.dat
SOLUTION_ADJ_FILENAME= restart_adj.dat
TABULAR_FORMAT= CSV
CONV_FILENAME= history
RESTART_FILENAME= restart_flow.dat
RESTART_ADJ_FILENAME= restart_adj.dat
VOLUME_FILENAME= flow
VOLUME_ADJ_FILENAME= adjoint
GRAD_OBJFUNC_FILENAME= of_grad.dat
SURFACE_FILENAME= surface_flow
SURFACE_ADJ_FILENAME= surface_adjoint
SCREEN_OUTPUT = (OUTER_ITER, RMS_RES[0], RMS_RES[1], RMS_RES[2], RMS_RES[3], RMS_RES[4], AVG_CFL[0], DRAG[0], LIFT[0])
HISTORY_OUTPUT =(OUTER_ITER, RMS_RES[0], RMS_RES[1], RMS_RES[2], RMS_RES[3], RMS_RES[4], AVG_CFL[0], DRAG[0], LIFT[0])
WRT_PERFORMANCE= YES
WRT_AD_STATISTICS= YES
WRT_RESTART_OVERWRITE= YES
WRT_SURFACE_OVERWRITE= YES
WRT_VOLUME_OVERWRITE= YES
WRT_FORCES_BREAKDOWN= YES
BREAKDOWN_FILENAME= forces_breakdown.dat
%
